Circuit: * PSpice Model Editor - Version 17.4.0

Fatal Error: No analysis request found.
